Version 4
SHEET 1 880 680
WIRE 160 16 48 16
WIRE 320 16 240 16
WIRE 336 16 320 16
WIRE 48 96 48 16
WIRE 336 112 336 16
WIRE 48 208 48 176
WIRE 176 208 48 208
WIRE 336 208 336 176
WIRE 336 208 176 208
WIRE 176 240 176 208
FLAG 176 240 0
FLAG 320 16 a
SYMBOL voltage 48 80 R0
WINDOW 123 0 0 Left 0
WINDOW 39 0 0 Left 0
SYMATTR InstName V1
SYMATTR Value 5
SYMBOL res 256 0 R90
WINDOW 0 0 56 VBottom 2
WINDOW 3 32 56 VTop 2
SYMATTR InstName R1
SYMATTR Value 9k
SYMBOL schottky 320 112 R0
SYMATTR InstName D1
SYMATTR Value BAT54
SYMATTR Description Diode
SYMATTR Type diode
TEXT 96 -144 Left 2 !.dc V1 -1 5 0.01
