Version 4
SHEET 1 880 680
WIRE 80 32 -32 32
WIRE 256 32 144 32
WIRE 256 80 256 32
WIRE -32 96 -32 32
WIRE -32 224 -32 176
WIRE 112 224 -32 224
WIRE 256 224 256 160
WIRE 256 224 112 224
WIRE 112 256 112 224
FLAG 112 256 0
SYMBOL voltage -32 80 R0
WINDOW 123 0 0 Left 0
WINDOW 39 0 0 Left 0
SYMATTR InstName V1
SYMATTR Value SINE(0 5 100)
SYMBOL res 240 64 R0
SYMATTR InstName R1
SYMATTR Value 9k
SYMBOL schottky 80 48 R270
WINDOW 0 32 32 VTop 2
WINDOW 3 0 32 VBottom 2
SYMATTR InstName D1
SYMATTR Value BAT54
SYMATTR Description Diode
SYMATTR Type diode
TEXT 80 -96 Left 2 !.tran 0.04
